Circuit: * C:\Users\chang\OneDrive - Stanford\1st Year\EE 254\Homework 3\q1.asc

Direct Newton iteration for .op point succeeded.

Date: Sun Oct 13 12:45:51 2024
Total elapsed time: 0.539 seconds.

tnom = 27
temp = 27
method = modified trap
totiter = 416479
traniter = 416474
tranpoints = 191903
accept = 153289
rejected = 38614
matrix size = 10
fillins = 4
solver = Normal
Avg thread counts: 1.0/1.0/1.0/1.0
Matrix Compiler1: 534 bytes object code size  0.1/0.1/[0.1]
Matrix Compiler2: off  [0.1]/0.2/0.2

