Circuit: * C:\Users\chang\OneDrive - Stanford\1st Year\EE 254\Homework 3\q1_withLeak.asc

Direct Newton iteration for .op point succeeded.

Date: Sun Oct 13 12:54:04 2024
Total elapsed time: 0.845 seconds.

tnom = 27
temp = 27
method = modified trap
totiter = 650326
traniter = 650321
tranpoints = 290507
accept = 226153
rejected = 64354
matrix size = 11
fillins = 4
solver = Normal
Avg thread counts: 1.0/1.0/1.0/1.0
Matrix Compiler1: 584 bytes object code size  0.2/0.2/[0.1]
Matrix Compiler2: off  [0.1]/0.2/0.1

