Questionable use of curly braces in "b2 pwm1 0 v{if(v(vsin1)>v(vtri),1,0)}"
    Error: undefined symbol in: "if([v](vsin1)>v(vtri),1,0)"
Questionable use of curly braces in "b3 pwms4 0 v{if(v(vsin)>0,1,0)}"
    Error: undefined symbol in: "if([v](vsin)>0,1,0)"
Questionable use of curly braces in "b4 pwms3 0 v{if(v(vsin)<0,1,0)}"
    Error: undefined symbol in: "if([v](vsin)<0,1,0)"
Circuit: * C:\Users\chang\OneDrive - Stanford\1st Year\EE 254\Homework 2\problem2.asc

WARNING: Less than two connections to node pwms1.  This node is used by b5.
WARNING: Less than two connections to node pwms2.  This node is used by b6.
.OP point found by inspection.

Date: Tue Oct  8 12:14:04 2024
Total elapsed time: 1.342 seconds.

tnom = 27
temp = 27
method = modified trap
totiter = 216270
traniter = 216270
tranpoints = 87970
accept = 80439
rejected = 7531
matrix size = 16
fillins = 0
solver = Normal
Avg thread counts: 1.0/1.0/1.0/1.0
Matrix Compiler1: 286 bytes object code size  0.1/0.1/[0.1]
Matrix Compiler2: off  [0.1]/0.2/0.1

