Questionable use of curly braces in "b2 pwm1 0 v{if(v(vsin1)>v(vtri),1,0)}"
    Error: undefined symbol in: "if([v](vsin1)>v(vtri),1,0)"
Questionable use of curly braces in "b3 pwms4 0 v{if(v(vsin)>0,1,0)}"
    Error: undefined symbol in: "if([v](vsin)>0,1,0)"
Questionable use of curly braces in "b4 pwms3 0 v{if(v(vsin)<0,1,0)}"
    Error: undefined symbol in: "if([v](vsin)<0,1,0)"
Circuit: * C:\Users\chang\OneDrive - Stanford\1st Year\EE 254\Homework 2\problem3.asc

Direct Newton iteration for .op point succeeded.

Date: Thu Oct 10 16:18:41 2024
Total elapsed time: 18.624 seconds.

tnom = 27
temp = 27
method = modified trap
totiter = 2936612
traniter = 2936609
tranpoints = 1182897
accept = 914862
rejected = 268035
matrix size = 21
fillins = 0
solver = Normal
Avg thread counts: 1.0/1.0/1.0/1.0
Matrix Compiler1: 500 bytes object code size  0.2/0.2/[0.2]
Matrix Compiler2: off  [0.2]/0.5/0.2

