Questionable use of curly braces in "b1 vsw 0 v={if(v(fb)>0,5,-5)}"
    Error: undefined symbol in: "if([v](fb)>0,5,-5)"
Questionable use of curly braces in "b2 pwms4 0 v={if(v(sin)>0,1,0)}"
    Error: undefined symbol in: "if([v](sin)>0,1,0)"
Questionable use of curly braces in "b3 pwms3 0 v={if(v(sin)<0,1,0)}"
    Error: undefined symbol in: "if([v](sin)<0,1,0)"
Circuit: * C:\Users\chang\OneDrive - Stanford\1st Year\EE 254\Homework 2\problem4_allabout.asc

WARNING: Less than two connections to node rand.  This node is used by v2.
WARNING: Less than two connections to node nc_01.  This node is used by d1.
Per .tran options, skipping operating point for transient analysis.

Date: Fri Oct 11 14:43:08 2024
Total elapsed time: 0.778 seconds.

tnom = 27
temp = 27
method = modified trap
totiter = 100497
traniter = 100497
tranpoints = 50194
accept = 50137
rejected = 57
matrix size = 29
fillins = 3
solver = Normal
Avg thread counts: 1.0/1.1/1.1/1.0
Matrix Compiler1: 1.04 KB object code size  0.6/0.3/[0.3]
Matrix Compiler2: 1.73 KB object code size  0.4/0.4/[0.3]

