Circuit: * C:\Users\chang\OneDrive - Stanford\1st Year\EE 254\Homework 3\q3.asc

Direct Newton iteration for .op point succeeded.

Date: Sun Oct 13 17:21:18 2024
Total elapsed time: 2.725 seconds.

tnom = 27
temp = 27
method = modified trap
totiter = 2043509
traniter = 2043504
tranpoints = 1002617
accept = 813792
rejected = 188825
matrix size = 13
fillins = 3
solver = Normal
Avg thread counts: 1.0/1.0/1.0/1.0
Matrix Compiler1: 536 bytes object code size  0.2/0.1/[0.1]
Matrix Compiler2: 885 bytes object code size  0.1/0.2/[0.1]

