Circuit: * C:\Users\chang\OneDrive - Stanford\1st Year\EE 254\Homework 2\problem1.asc

Per .tran options, skipping operating point for transient analysis.

Date: Wed Oct  9 10:37:11 2024
Total elapsed time: 2.540 seconds.

tnom = 27
temp = 27
method = modified trap
totiter = 2155656
traniter = 2155656
tranpoints = 1025948
accept = 822321
rejected = 203627
matrix size = 7
fillins = 0
solver = Normal
Avg thread counts: 1.0/1.0/1.0/1.0
Matrix Compiler1: off  [0.1]/0.1/0.1
Matrix Compiler2: 399 bytes object code size  0.1/0.3/[0.1]

