Questionable use of curly braces in "b1 vsw 0 v={if(v(fb)>i(l1)-v(sin),5,-5)}"
    Error: undefined symbol in: "if([v](fb)>i(l1)-v(sin),5,-5)"
Questionable use of curly braces in "b2 pwms4 0 v={if(v(sin)>0,1,0)}"
    Error: undefined symbol in: "if([v](sin)>0,1,0)"
Questionable use of curly braces in "b3 pwms3 0 v={if(v(sin)<0,1,0)}"
    Error: undefined symbol in: "if([v](sin)<0,1,0)"
Circuit: * C:\Users\chang\OneDrive - Stanford\1st Year\EE 254\Homework 2\problem4_comparator_hysteresis.asc

Per .tran options, skipping operating point for transient analysis.

Date: Fri Oct 11 14:47:52 2024
Total elapsed time: 3.816 seconds.

tnom = 27
temp = 27
method = modified trap
totiter = 1024913
traniter = 1024913
tranpoints = 231565
accept = 184047
rejected = 47518
matrix size = 24
fillins = 2
solver = Normal
Avg thread counts: 1.0/1.0/1.0/1.0
Matrix Compiler1: 874 bytes object code size  0.5/0.3/[0.2]
Matrix Compiler2: 1.47 KB object code size  0.3/0.4/[0.2]

